20
	Energy:       5.8343422
C         -3.27461       -0.40854        1.50228
C         -2.48994        0.89784        1.42583
H         -4.33946       -0.23585        1.23707
H         -3.22676       -0.81175        2.53578
H         -2.84224       -1.15944        0.80708
C         -2.53590        1.48829        0.00846
H         -1.43759        0.69553        1.72045
H         -2.92874        1.62285        2.14548
C         -1.77988        2.82040       -0.09414
H         -3.59696        1.67121       -0.26985
H         -2.10740        0.76230       -0.71739
C         -0.31309        2.66123        0.19214
H         -2.23218        3.55380        0.60963
H         -1.89142        3.21867       -1.12521
O          0.43254        1.83414       -0.58412
O          0.19461        3.27967        1.11771
C          1.78082        1.61539       -0.39892
H          2.34170        2.56851       -0.50569
H          2.14210        0.90003       -1.16590
H          1.96325        1.18285        0.60813
