%NProcShared=2
#n B3LYP/6-31G(d) Opt

 riboflavin

0 1
C         -0.76950        0.67960        0.11240
C         -0.79290       -0.64860        0.57390
N          0.39020        1.21980       -0.41470
N         -1.92010        1.40840        0.18210
N          0.32200       -1.40490        0.49800
N         -3.10260       -0.38920        1.15660
C         -1.97890       -1.17250        1.10230
C         -3.06990        0.90000        0.69300
C          1.52330        0.41310       -0.51280
C          1.46720       -0.92110       -0.03130
C          0.34980        2.64220       -0.86580
C          2.75710        0.84170       -1.06970
C          0.16310        3.64650        0.31550
C          1.27080        3.57320        1.40790
C          2.57800       -1.76310       -0.09320
C          3.87970       -0.00590       -1.13350
C          3.78770       -1.32450       -0.63620
O         -2.01920       -2.32120        1.51070
O         -4.07030        1.59320        0.73760
C          2.69160        4.00670        0.95330
O         -0.00110        4.96070       -0.16110
O          0.87830        4.30580        2.54420
O          2.69360        5.37050        0.61580
O          3.83670        2.39640        2.35700
C          3.74130        3.76270        2.04990
C          5.15930        0.51990       -1.73540
C          4.93690       -2.30130       -0.66210
H          2.97960        3.40400        0.07110
H          1.31870        2.50800        1.71960
H         -0.78130        3.39320        0.83000
H          1.24010        2.95740       -1.42150
H         -0.48350        2.76200       -1.59250
H         -3.99030       -0.77840        1.54980
H          2.89810        1.82260       -1.47390
H          2.49670       -2.77580        0.28690
H          0.69160        5.13320       -0.84980
H          0.76980        5.25490        2.27560
H          3.44380        5.51330       -0.01900
H          3.26490        2.23520        3.15220
H          4.73590        4.10090        1.68890
H          3.51440        4.36570        2.96010
H          5.97210        0.48530       -0.97980
H          5.44160       -0.09470       -2.61590
H          5.06230        1.57250       -2.07630
H          5.17430       -2.61990        0.37490
H          4.64880       -3.19520       -1.25480
H          5.86210       -1.88710       -1.10660

